test test test
New Line 
test test test
New Line
[][][][] test [][][][][]
New Line...